34
-1885.9731854839 , 
 Ru  3.22151905  0.09341321  0.30165609
 Cl  3.06637599 -0.08492131 -2.34265383
 Cl  5.60521507  0.24292635  0.12904355
  N  1.24847567 -0.04649062  0.19343840
  N  2.74745775  2.05857703 -0.02875876
  N  3.01759282 -1.94338057  0.22537582
  N  3.36708708  0.21884740  2.12239354
  O  4.08448912  0.32216727  3.00377615
  C  0.55576445  1.07876740  0.02121541
  C  1.40823093  2.28178894 -0.10843568
  C  3.17639385  4.34827384 -0.45858186
  H  3.89835375  5.13246692 -0.60215209
  C  0.71412002 -1.26701847  0.16999804
  C -0.66234614 -1.39648379  0.07000698
  H -1.13543757 -2.36164815  0.05761770
  C  3.75247469 -4.19084805  0.08297555
  H  4.57401855 -4.88321646  0.03307960
  C  1.72095919 -2.35186757  0.18536651
  C  0.92065026  3.55187714 -0.33259314
  H -0.13815134  3.73095447 -0.38810609
  C -0.82475676  1.00916224 -0.08265906
  H -1.42270730  1.89300530 -0.21246859
  C  3.60506438  3.05289397 -0.22215199
  H  4.64649764  2.78418180 -0.17161952
  C  4.00207109 -2.83044467  0.15133284
  H  4.99777941 -2.42069541  0.15908263
  C  1.40951718 -3.69375086  0.12635471
  H  0.38466138 -4.01833151  0.10228742
  C  2.43999335 -4.62459842  0.07696623
  H  2.21149167 -5.67572762  0.02686444
  C  1.81780204  4.59847416 -0.50745380
  H  1.45122646  5.59495681 -0.68702083
  C -1.42440928 -0.24163137 -0.03805584
  H -2.49563543 -0.31876140 -0.11392154