95
-2363.236482939008 , 
 Pt -3.70907112 -0.15494953 -0.00673941
  C -5.43566297 -1.05183851  0.17663956
  C -4.59957440  1.55377523 -0.25845453
  C -6.48041273 -1.68065922  0.27978967
  C -5.09579576  2.66909320 -0.40254615
  C -7.69610468 -2.40566522  0.38609226
  C -5.66256615  3.94993372 -0.56627471
  C -8.93726967 -1.75309310  0.27645385
  C -7.70111659 -3.79527706  0.60105638
  C -4.84995485  5.09392398 -0.72418487
  C -7.06318887  4.12893324 -0.58194737
  C -10.12217139 -2.46221883  0.37356295
  H -8.95330085 -0.68431468  0.11643400
  C -8.89377522 -4.49373863  0.69645910
  H -6.75844278 -4.31659442  0.69391938
  C -5.41483156  6.34498883 -0.89060342
  H -3.77521082  4.97824237 -0.71703049
  C -7.61308728  5.38583384 -0.74875283
  H -7.70057119  3.26416262 -0.46490806
  C -10.12604980 -3.84487573  0.58086312
  H -11.06449241 -1.93628441  0.28768280
  H -8.87166078 -5.56307016  0.86408464
  C -6.80458151  6.51967549 -0.90501164
  H -4.77228107  7.20726809 -1.01415936
  H -8.68953555  5.49810142 -0.76138018
  C -11.41782287 -4.61127562  0.64931100
  C -7.41248312  7.88499469 -1.05672055
  H -12.20895654 -4.01579208  1.10602282
  H -11.76093850 -4.89255752 -0.35014206
  H -11.30549946 -5.52992069  1.22516144
  H -8.36692328  7.83825423 -1.58178758
  H -6.75153028  8.55594981 -1.60547332
  H -7.60211755  8.34065445 -0.08068206
  N -2.58459584 -1.89357105  0.27484035
  C -3.01763268 -3.14006728  0.50132815
  C -1.22853641 -1.66396077  0.21692871
  C -2.15663831 -4.20908036  0.68103807
  H -4.08969505 -3.25770059  0.53485076
  C -0.29239374 -2.71299825  0.39020158
  C -0.79885849 -0.35337400 -0.03231871
  C -0.77512252 -3.99626638  0.62552613
  H -2.56316973 -5.19218092  0.86108752
  C  1.09715906 -2.37554615  0.32530317
  C  0.58085808 -0.03382099 -0.12375738
  N -1.78307259  0.60580163 -0.20709402
  H -0.08284953 -4.81502921  0.76261608
  C  1.53491186 -1.10290111  0.09159241
  H  1.81858686 -3.16315006  0.49418500
  C  0.92293896  1.27977080 -0.45442095
  C -1.41136430  1.86469713 -0.50027041
  C  2.98854348 -0.83302945  0.06101425
  C -0.09024862  2.23381590 -0.64069855
  H  1.95645755  1.55942987 -0.57594897
  H -2.21983361  2.56783373 -0.62472237
  C  3.83974361 -1.61859706 -0.72348028
  C  3.56038686  0.17464949  0.84766386
  H  0.15249706  3.25443109 -0.89309404
  C  5.20724382 -1.41337359 -0.72646049
  H  3.41965144 -2.40297136 -1.33678413
  C  4.92349640  0.40014317  0.84314216
  H  2.92648518  0.78823204  1.47112489
  C  5.76728091 -0.39455344  0.05479727
  H  5.84798977 -2.04095359 -1.32669086
  H  5.34253719  1.19328834  1.44303421
  N  7.14959390 -0.17077896  0.04840438
  C  7.80397095  0.26993510  1.21554887
  C  7.90020299 -0.38051096 -1.12526628
  C  8.79016524  1.25464535  1.14182316
  C  7.47921873 -0.27709899  2.46482716
  C  9.14987514 -0.99838696 -1.06097608
  C  7.40863246  0.03473302 -2.37076655
  C  9.44278039  1.69340968  2.28336067
  H  9.03871479  1.68704937  0.18418874
  C  8.11790510  0.16287975  3.60409105
  H  6.72961406 -1.05143217  2.52998952
  C  9.90072592 -1.20408446 -2.20794367
  H  9.53051899 -1.32927690 -0.10626240
  C  8.14688225 -0.17635805 -3.51536502
  H  6.45044989  0.52892737 -2.42904916
  C  9.10613202  1.15266635  3.52671750
  H  10.19415259  2.46146139  2.19546343
  H  7.87867727 -0.25529344  4.57068198
  C  9.40068976 -0.79730709 -3.44728746
  H  10.85880219 -1.69164420 -2.12717731
  H  7.77987508  0.14477090 -4.47900898
  O  9.67175344  1.51411645  4.69567482
  O  10.04512308 -0.95596589 -4.62067507
  C  10.67177029  2.51813920  4.68045433
  C  11.31691515 -1.58109136 -4.61377862
  H  10.27724386  3.45986462  4.29575360
  H  11.52950793  2.21001642  4.08063507
  H  10.97918545  2.64855235  5.71308768
  H  11.25146710 -2.60111986 -4.23201174
  H  12.03116765 -1.01321834 -4.01557371
  H  11.64493634 -1.60141809 -5.64810369