30
-1105.41996296073 , 
  C -2.52162155  1.96472872 -1.02733640
  C -2.54815816  1.44238978  0.28190518
  C -1.77954928  0.36263304  0.60731773
  C -0.87888168 -0.29503357 -0.34175866
  C -0.96251080  0.24946110 -1.69486254
  C -1.74186007  1.34421640 -2.00277199
  H -3.17228422  1.91438731  1.04286945
  H -1.76298153  0.00563442  1.63962868
  H -0.36002859 -0.22102174 -2.47254702
  H -1.74580128  1.72380803 -3.02637852
  C -1.15298550 -1.89313257 -0.32100436
  H -1.51250327 -2.15113909  0.68442153
  H -1.98398504 -2.04348235 -1.02018235
  N -0.02776517 -2.71254200 -0.66344405
  H  0.31219815 -3.26957464  0.11716306
  S  1.36479463 -1.82036997 -1.18147927
  O  2.51034760 -2.57964714 -0.67607155
  O  1.25377377 -1.55800752 -2.62562988
  C  0.68566018 -0.07099910  0.26813559
  C  0.99445913 -0.64973005  1.51596796
  C  1.34606022  1.12272566 -0.08593202
  C  1.93935016 -0.07503317  2.35194913
  H  0.49551812 -1.56775747  1.83307274
  C  2.31382811  1.66801450  0.74444685
  H  1.09042156  1.62116173 -1.02168618
  C  2.61719165  1.08304616  1.97310278
  H  2.15635548 -0.54646679  3.31295040
  H  2.82557455  2.58177388  0.43406470
  H -3.12044061  2.84273317 -1.27655618
  H  3.36582346  1.52722326  2.63064517