30
-1105.419964619202 , 
  C -2.51928706  1.96596452 -1.02695548
  C -2.54622868  1.44398444  0.28240737
  C -1.77927236  0.36302265  0.60775768
  C -0.87951676 -0.29579987 -0.34130990
  C -0.96358839  0.24774884 -1.69473711
  C -1.74129619  1.34365212 -2.00266961
  H -3.16941177  1.91708337  1.04345920
  H -1.76306380  0.00613215  1.64011281
  H -0.36240780 -0.22418846 -2.47255782
  H -1.74537632  1.72272194 -3.02646914
  C -1.15392459 -1.89391058 -0.31911219
  H -1.51461050 -2.15055146  0.68623161
  H -1.98419960 -2.04495240 -1.01900867
  N -0.02876761 -2.71435398 -0.65906808
  H  0.31177887 -3.26851974  0.12332855
  S  1.36329190 -1.82340618 -1.18056617
  O  2.50936803 -2.58211906 -0.67548245
  O  1.24988855 -1.56362765 -2.62501401
  C  0.68560993 -0.07115348  0.26752971
  C  0.99471606 -0.64819897  1.51603037
  C  1.34604013  1.12191937 -0.08845675
  C  1.93984529 -0.07239903  2.35098348
  H  0.49561812 -1.56564052  1.83461049
  C  2.31406560  1.66832978  0.74093956
  H  1.09039678  1.61895986 -1.02494469
  C  2.61765748  1.08512657  1.97035237
  H  2.15704363 -0.54249224  3.31259853
  H  2.82585725  2.58155691  0.42906377
  H -3.11670488  2.84493192 -1.27614109
  H  3.36647868  1.53017918  2.62708765