22
-462.719941339785 , 
  C -3.20256138  1.25968798 -1.33015015
  C -3.15413557  1.12588867  0.05505531
  C -1.93144738  0.98339973  0.70225050
  C -0.73200611  0.97043411 -0.02101967
  C -0.79605998  1.10489738 -1.41337334
  C -2.01811829  1.24910575 -2.06182665
  H -4.07720979  1.14110657  0.63847286
  H -1.90069299  0.90300415  1.79050904
  H  0.12552633  1.07162040 -1.99730928
  H -2.04583419  1.34485863 -3.14948954
  C  0.57498273  0.81894946  0.66776218
  C  0.71347551 -0.03695330  1.76736233
  C  1.70314607  1.52464993  0.23002545
  C  1.94030529 -0.18567637  2.40622011
  H -0.14795868 -0.61258653  2.11073422
  C  2.92996961  1.37648819  0.86729698
  H  1.60867236  2.21542793 -0.60996168
  C  3.05364786  0.52006513  1.95827115
  H  2.02978095 -0.86509045  3.25667660
  H  3.79539448  1.94115661  0.51415842
  H -4.16217404  1.37096605 -1.83911943
  H  4.01683438  0.40210978  2.45899484