30
-1105.5635330381 , 
  C -3.25509261  1.19154138 -1.15404681
  C -3.12208172  1.10406205  0.22925719
  C -1.85993646  1.00415752  0.80581053
  C -0.70626643  0.99024509  0.01240479
  C -0.85393208  1.08262448 -1.37799461
  C -2.11530046  1.18220129 -1.95441807
  H -4.00873232  1.12432263  0.86660522
  H -1.76722534  0.95785620  1.89257164
  H  0.03132906  1.02227858 -2.01048818
  H -2.20758215  1.24271198 -3.04092782
  C -1.24441874 -2.37473343 -0.70383932
  H -2.28294006 -2.63857295 -0.44643242
  H -1.07742560 -1.82108137 -1.63910042
  N -0.24335968 -2.65949525  0.00854828
  H -0.46708976 -3.16989878  0.86662875
  S  1.94908972 -1.79542005 -0.97764688
  O  2.67041332 -3.04864449 -1.13677006
  O  1.22448597 -1.31620110 -2.15743105
  C  0.64224937  0.83780409  0.61193161
  C  0.83901001  0.04262345  1.74753267
  C  1.76285464  1.43800607  0.02448468
  C  2.11110023 -0.15571781  2.27305920
  H -0.01588589 -0.45519413  2.20758170
  C  3.03621879  1.23722718  0.54523588
  H  1.63342887  2.07545923 -0.85115086
  C  3.21668478  0.43695553  1.67045980
  H  2.24218173 -0.79117720  3.15142508
  H  3.89627019  1.71237428  0.06903175
  H -4.24536045  1.27039359 -1.60750912
  H  4.21731309  0.27329192  2.07518683