30
-1105.419962983225 , 
  C -2.51895926  1.96685549 -1.02682208
  C -2.54920049  1.43917117  0.28017451
  C -1.78149881  0.35806022  0.60328248
  C -0.87787554 -0.29537348 -0.34582606
  C -0.95824198  0.25412535 -1.69703482
  C -1.73669224  1.35015309 -2.00267069
  H -3.17548616  1.90801592  1.04131014
  H -1.76783799 -0.00315912  1.63416546
  H -0.35372952 -0.21334708 -2.47495885
  H -1.73794881  1.73378872 -3.02477335
  C -1.14986756 -1.89390518 -0.33152824
  H -1.51294000 -2.15576296  0.67160648
  H -1.97793007 -2.04309744 -1.03443736
  N -0.02237491 -2.71091729 -0.67220634
  H  0.31637833 -3.26876029  0.10835246
  S  1.36993657 -1.81540828 -1.18492977
  O  2.51558091 -2.57482762 -0.67995395
  O  1.26079012 -1.54886086 -2.62849947
  C  0.68506581 -0.07149012  0.26944798
  C  0.99061391 -0.65430618  1.51613873
  C  1.34484204  1.12439908 -0.07820059
  C  1.93177260 -0.08116167  2.35739263
  H  0.49178586 -1.57405462  1.82839598
  C  2.30891057  1.66824928  0.75746356
  H  1.09161048  1.62577582 -1.01303182
  C  2.60906514  1.07932688  1.98499403
  H  2.14620070 -0.55565029  3.31746776
  H  2.82027240  2.58392544  0.45214107
  H -3.11701322  2.84592593 -1.27411275
  H  3.35477115  1.52231006  2.64665290