13
 SCF done        -23.963622279070          0.000322885642
N          -4.56987673242381    2.61361860529214   -0.00009348430025
C          -4.82505406285950    1.29211776572107   -0.00007906337887
C          -3.34443975696640    3.07635811922006   -0.00004369525558
C          -2.19080216153773    2.22815770407930    0.00005343499549
C          -2.42252333094570    0.89301438785129    0.00007113611184
N          -3.68478423754356    0.43182219068604   -0.00000049433800
N          -3.19674992636393    4.41378932348231   -0.00013828071652
H          -4.02735486348201    4.97851764069999   -0.00005536936567
H          -2.29063590775502    4.84320782148839    0.00016786958522
O          -5.91946745813229    0.78365311497424   -0.00011973325817
H          -1.19560705489076    2.63664963976739    0.00011136859309
H          -1.62396271894374    0.16306267985563    0.00010691874806
H          -3.88254178815556   -0.55925899311786    0.00000939257936
